CM Half-wavelength dipole 915MHz
CE
GW 1 9 0 -0.535 0 0 0.535 0 0.001
GE
EX 0 1 5 0 10 0
FR 0 100 0 0 100 10
EN
