CM Example 1: Half-wavelength dipole
CE
GW 1 9 0 -0.2 0 0 0.2 0 .001
GE
EX 0 1 5 0 1 0
FR 0 1 0 0 200 0
EN
